Florida/Base_Florida_42GW.m
% Case saved by PowerWorld Simulator, version 22, build date March 24, 2022
function mpc = Base_Florida_42GW
mpc.version = '2';
mpc.baseMVA =  100.00;

%% bus data 
mpc.bus = [
27810	2	0.00	0.00	0.00	0.00	6	1.0200001	-30.571601	500.00	1	1.100	0.900	0.09	0.00	0	0
27811	2	0.00	0.00	0.00	0.00	6	1.0200114	-50.527164	500.00	1	1.100	0.900	0.08	0.00	0	0
27812	2	0.00	0.00	0.00	0.00	6	1.0200089	-49.963385	500.00	1	1.100	0.900	0.08	0.00	0	0
27813	2	0.00	0.00	0.00	0.00	6	1.0200212	-51.881827	230.00	1	1.100	0.900	0.07	0.00	0	0
27814	2	0.00	0.00	0.00	0.00	6	1.0175287	-44.308967	500.00	1	1.100	0.900	0.08	-0.00	0	0
27815	2	0.00	0.00	0.00	0.00	6	1.0200117	-45.965358	500.00	1	1.100	0.900	0.07	0.00	0	0
27816	2	0.00	0.00	0.00	0.00	6	1.0200943	-47.210506	500.00	1	1.100	0.900	0.07	0.00	0	0
27817	2	0.00	0.00	0.00	0.00	6	1.0200023	-42.286215	230.00	1	1.100	0.900	0.08	0.00	0	0
27818	1	0.00	0.00	0.00	0.00	6	1.0110511	-27.435582	500.00	1	1.100	0.900	0.09	0.00	0	0
27819	2	0.00	0.00	0.00	0.00	6	1.0200092	-46.995265	230.00	1	1.100	0.900	0.07	0.00	0	0
27820	2	0.00	0.00	0.00	0.00	6	1.0074474	-35.947881	230.00	1	1.100	0.900	0.08	-0.00	0	0
27821	2	0.00	0.00	0.00	0.00	6	1.0200000	-30.479178	500.00	1	1.100	0.900	0.09	0.00	0	0
27822	2	0.00	0.00	0.00	0.00	6	1.0200089	-50.034019	500.00	1	1.100	0.900	0.08	0.00	0	0
27823	2	0.00	0.00	0.00	0.00	6	0.9999239	-53.029123	138.00	1	1.100	0.900	0.08	-0.00	0	0
27824	2	0.00	0.00	0.00	0.00	6	1.0180952	-56.122098	138.00	1	1.100	0.900	0.07	0.00	0	0
27825	2	0.00	0.00	0.00	0.00	6	1.0200001	-32.428475	230.00	1	1.100	0.900	0.09	0.00	0	0
27826	2	0.00	0.00	0.00	0.00	6	1.0200159	-50.568119	230.00	1	1.100	0.900	0.07	0.00	0	0
27827	2	0.00	0.00	0.00	0.00	6	1.0200036	-44.050064	230.00	1	1.100	0.900	0.08	0.00	0	0
27828	2	0.00	0.00	0.00	0.00	6	1.0192910	-87.502590	138.00	1	1.100	0.900	0.06	0.00	0	0
27829	2	0.00	0.00	0.00	0.00	6	1.0200048	-43.754943	138.00	1	1.100	0.900	0.08	0.00	0	0
27830	2	0.00	0.00	0.00	0.00	6	1.0200078	-43.838106	500.00	1	1.100	0.900	0.08	0.00	0	0
27831	2	0.00	0.00	0.00	0.00	6	1.0188538	-66.571763	500.00	1	1.100	0.900	0.07	0.00	0	0
27832	2	0.00	0.00	0.00	0.00	6	1.0200021	-41.795248	230.00	1	1.100	0.900	0.08	0.00	0	0
27833	2	0.00	0.00	0.00	0.00	6	1.0200070	-44.008978	138.00	1	1.100	0.900	0.08	0.00	0	0
27834	2	0.00	0.00	0.00	0.00	6	1.0200075	-43.579082	500.00	1	1.100	0.900	0.08	0.00	0	0
27835	2	0.00	0.00	0.00	0.00	6	1.0200079	-46.261043	230.00	1	1.100	0.900	0.07	0.00	0	0
27836	2	0.00	0.00	0.00	0.00	6	1.0200140	-46.795061	500.00	1	1.100	0.900	0.07	0.00	0	0
27837	2	0.00	0.00	0.00	0.00	6	1.0200053	-46.768453	500.00	1	1.100	0.900	0.07	0.00	0	0
27838	2	0.00	0.00	0.00	0.00	6	1.0200043	-44.708285	500.00	1	1.100	0.900	0.08	0.00	0	0
27839	2	0.00	0.00	0.00	0.00	6	1.0200095	-45.033217	500.00	1	1.100	0.900	0.07	0.00	0	0
27840	3	0.00	0.00	0.00	0.00	6	1.0100000	-27.135827	500.00	1	1.100	0.900	0.09	0.00	0	0
27841	2	0.00	0.00	0.00	0.00	6	1.0200000	-35.997749	500.00	1	1.100	0.900	0.08	0.00	0	0
27842	2	0.00	0.00	0.00	0.00	6	1.0200000	-38.008196	500.00	1	1.100	0.900	0.08	0.00	0	0
27843	2	0.00	0.00	0.00	0.00	6	1.0054685	-52.166784	230.00	1	1.100	0.900	0.08	-0.00	0	0
27844	2	0.00	0.00	0.00	0.00	6	1.0200093	-51.787761	230.00	1	1.100	0.900	0.08	0.00	0	0
27845	2	0.00	0.00	0.00	0.00	6	1.0200069	-43.493528	500.00	1	1.100	0.900	0.08	0.00	0	0
27846	2	0.00	0.00	0.00	0.00	6	0.9953671	-48.149723	138.00	1	1.100	0.900	0.08	-0.00	0	0
27847	2	0.00	0.00	0.00	0.00	6	1.0133848	-52.430654	230.00	1	1.100	0.900	0.07	-0.00	0	0
27848	2	0.00	0.00	0.00	0.00	6	1.0200073	-43.288070	500.00	1	1.100	0.900	0.08	0.00	0	0
27849	2	0.00	0.00	0.00	0.00	6	1.0200160	-79.464397	230.00	1	1.100	0.900	0.07	0.00	0	0
27850	2	0.00	0.00	0.00	0.00	6	1.0198748	-46.277463	230.00	1	1.100	0.900	0.07	-0.00	0	0
27851	2	0.00	0.00	0.00	0.00	6	1.0005016	-53.399886	138.00	1	1.100	0.900	0.07	0.00	0	0
27852	2	0.00	0.00	0.00	0.00	6	1.0200002	-46.410538	138.00	1	1.100	0.900	0.07	0.00	0	0
27853	2	0.00	0.00	0.00	0.00	6	0.9721532	-49.888348	138.00	1	1.100	0.900	0.07	-0.00	0	0
27854	2	0.00	0.00	0.00	0.00	6	1.0198459	-46.285286	230.00	1	1.100	0.900	0.07	-0.00	0	0
27855	2	0.00	0.00	0.00	0.00	6	1.0200042	-44.703909	500.00	1	1.100	0.900	0.08	0.00	0	0
27856	2	0.00	0.00	0.00	0.00	6	1.0200055	-45.219513	500.00	1	1.100	0.900	0.08	0.00	0	0
27857	2	0.00	0.00	0.00	0.00	6	1.0200119	-86.793959	230.00	1	1.100	0.900	0.06	0.00	0	0
27858	1	0.00	0.00	0.00	0.00	6	1.0024354	-87.981850	138.00	1	1.100	0.900	0.06	-0.00	0	0
27859	1	0.00	0.00	0.00	0.00	6	1.0199645	-43.854476	500.00	1	1.100	0.900	0.08	-0.00	0	0
27860	2	0.00	0.00	0.00	0.00	6	1.0155822	-50.988202	230.00	1	1.100	0.900	0.08	-0.00	0	0
27861	2	0.00	0.00	0.00	0.00	6	1.0098063	-46.231713	138.00	1	1.100	0.900	0.07	-0.00	0	0
27862	1	0.00	0.00	0.00	0.00	6	1.0190795	-45.329070	500.00	1	1.100	0.900	0.08	-0.00	0	0
27863	2	0.00	0.00	0.00	0.00	6	1.0200024	-42.014747	500.00	1	1.100	0.900	0.08	0.00	0	0
27864	2	0.00	0.00	0.00	0.00	6	1.0055307	-42.685241	138.00	1	1.100	0.900	0.08	0.00	0	0
27865	1	0.00	0.00	0.00	0.00	6	1.0031861	-34.891343	230.00	1	1.100	0.900	0.08	-0.00	0	0
27866	2	0.00	0.00	0.00	0.00	6	0.9877620	-49.512747	138.00	1	1.100	0.900	0.07	-0.00	0	0
27867	1	0.00	0.00	0.00	0.00	6	0.9899744	-39.471664	230.00	1	1.100	0.900	0.08	-0.00	0	0
27868	2	0.00	0.00	0.00	0.00	6	0.9920477	-41.493283	138.00	1	1.100	0.900	0.08	-0.00	0	0
27869	2	0.00	0.00	0.00	0.00	6	0.9904843	-36.408311	138.00	1	1.100	0.900	0.08	-0.00	0	0
27870	2	0.00	0.00	0.00	0.00	6	1.0200285	-58.599415	138.00	1	1.100	0.900	0.07	0.00	0	0
27871	2	0.00	0.00	0.00	0.00	6	0.9891728	-41.876858	69.00	1	1.100	0.900	0.08	-0.00	0	0
27872	2	0.00	0.00	0.00	0.00	6	1.0029239	-33.965093	230.00	1	1.100	0.900	0.08	-0.00	0	0
27873	2	0.00	0.00	0.00	0.00	6	0.9855940	-52.826581	138.00	1	1.100	0.900	0.07	-0.00	0	0
27874	2	0.00	0.00	0.00	0.00	6	1.0007381	-53.077557	138.00	1	1.100	0.900	0.07	-0.00	0	0
27875	1	0.00	0.00	0.00	0.00	6	0.9887266	-48.202497	138.00	1	1.100	0.900	0.08	-0.00	0	0
27876	1	0.00	0.00	0.00	0.00	6	1.0074000	-46.779198	138.00	1	1.100	0.900	0.07	0.00	0	0
27877	2	0.00	0.00	0.00	0.00	6	1.0200001	-36.757036	138.00	1	1.100	0.900	0.09	0.00	0	0
27878	1	0.00	0.00	0.00	0.00	6	0.9824252	-49.549353	138.00	1	1.100	0.900	0.07	-0.00	0	0
27879	2	0.00	0.00	0.00	0.00	6	0.9850546	-76.433575	138.00	1	1.100	0.900	0.07	0.00	0	0
27880	1	0.00	0.00	0.00	0.00	6	1.0017619	-55.403201	230.00	1	1.100	0.900	0.07	-0.00	0	0
27881	1	0.00	0.00	0.00	0.00	6	0.9739262	-52.970714	138.00	1	1.100	0.900	0.07	-0.00	0	0
27882	2	0.00	0.00	0.00	0.00	6	0.9716271	-51.702763	69.00	1	1.100	0.900	0.07	-0.00	0	0
27883	2	0.00	0.00	0.00	0.00	6	1.0037179	-48.048034	138.00	1	1.100	0.900	0.07	-0.00	0	0
27884	2	0.00	0.00	0.00	0.00	6	0.9958674	-63.103395	69.00	1	1.100	0.900	0.07	-0.00	0	0
27885	2	0.00	0.00	0.00	0.00	6	1.0055082	-53.944554	138.00	1	1.100	0.900	0.08	0.00	0	0
27886	2	0.00	0.00	0.00	0.00	6	0.9778707	-76.950798	69.00	1	1.100	0.900	0.07	0.00	0	0
27887	2	0.00	0.00	0.00	0.00	6	0.9911422	-57.135613	69.00	1	1.100	0.900	0.07	-0.00	0	0
27888	2	0.00	0.00	0.00	0.00	6	1.0200024	-42.889646	138.00	1	1.100	0.900	0.08	0.00	0	0
27889	1	0.00	0.00	0.00	0.00	6	0.9772127	-51.411990	138.00	1	1.100	0.900	0.07	-0.00	0	0
27890	2	0.00	0.00	0.00	0.00	6	1.0078751	-88.292982	69.00	1	1.100	0.900	0.06	-0.00	0	0
27891	2	0.00	0.00	0.00	0.00	6	0.9844699	-43.138788	138.00	1	1.100	0.900	0.08	-0.00	0	0
27892	2	0.00	0.00	0.00	0.00	6	0.9712072	-49.617980	69.00	1	1.100	0.900	0.07	-0.00	0	0
27893	2	0.00	0.00	0.00	0.00	6	1.0200086	-47.322580	69.00	1	1.100	0.900	0.08	0.00	0	0
27894	1	0.00	0.00	0.00	0.00	6	1.0191424	-46.291833	500.00	1	1.100	0.900	0.07	-0.00	0	0
27895	2	0.00	0.00	0.00	0.00	6	1.0200000	-38.022287	500.00	1	1.100	0.900	0.08	0.00	0	0
27896	1	0.00	0.00	0.00	0.00	6	0.9841384	-47.107838	138.00	1	1.100	0.900	0.07	-0.00	0	0
27897	2	0.00	0.00	0.00	0.00	6	0.9973473	-54.271556	138.00	1	1.100	0.900	0.07	-0.00	0	0
27898	1	0.00	0.00	0.00	0.00	6	1.0029930	-47.501425	138.00	1	1.100	0.900	0.07	-0.00	0	0
27899	2	0.00	0.00	0.00	0.00	6	1.0172390	-50.979243	138.00	1	1.100	0.900	0.08	0.00	0	0
27900	2	0.00	0.00	0.00	0.00	6	0.9958072	-37.225702	138.00	1	1.100	0.900	0.08	-0.00	0	0
27901	2	0.00	0.00	0.00	0.00	6	0.9981352	-53.237308	138.00	1	1.100	0.900	0.07	-0.00	0	0
27902	2	0.00	0.00	0.00	0.00	6	1.0200276	-68.253477	138.00	1	1.100	0.900	0.07	0.00	0	0
27903	2	0.00	0.00	0.00	0.00	6	0.9987321	-53.056973	138.00	1	1.100	0.900	0.08	-0.00	0	0
27904	2	0.00	0.00	0.00	0.00	6	0.9857493	-50.180272	69.00	1	1.100	0.900	0.07	-0.00	0	0
27905	2	0.00	0.00	0.00	0.00	6	1.0151972	-59.875734	69.00	1	1.100	0.900	0.07	0.00	0	0
27906	2	0.00	0.00	0.00	0.00	6	0.9936869	-52.974909	69.00	1	1.100	0.900	0.07	-0.00	0	0
27907	2	0.00	0.00	0.00	0.00	6	1.0175996	-44.465773	69.00	1	1.100	0.900	0.08	0.00	0	0
27908	2	0.00	0.00	0.00	0.00	6	0.9851997	-49.888710	69.00	1	1.100	0.900	0.08	-0.00	0	0
27909	1	0.00	0.00	0.00	0.00	6	1.0024202	-48.272665	138.00	1	1.100	0.900	0.07	-0.00	0	0
27910	2	0.00	0.00	0.00	0.00	6	0.9840243	-51.078904	69.00	1	1.100	0.900	0.07	-0.00	0	0
27911	2	0.00	0.00	0.00	0.00	6	0.9986471	-43.623778	69.00	1	1.100	0.900	0.08	-0.00	0	0
27912	2	0.00	0.00	0.00	0.00	6	1.0041776	-60.127216	69.00	1	1.100	0.900	0.06	-0.00	0	0
27913	2	0.00	0.00	0.00	0.00	6	0.9818165	-83.404946	69.00	1	1.100	0.900	0.07	-0.00	0	0
27914	2	0.00	0.00	0.00	0.00	6	0.9858598	-49.956482	138.00	1	1.100	0.900	0.07	-0.00	0	0
28026	1	10.73	6.48	0.00	0.00	6	0.9914454	-57.135167	69.00	1	1.100	0.900	0.07	-0.00	0	0
28027	1	0.00	0.00	0.00	0.00	6	1.0099969	-54.048606	500.00	1	1.100	0.900	0.07	-0.00	0	0
28028	1	17.58	9.13	0.00	0.00	6	1.0032352	-56.104627	138.00	1	1.100	0.900	0.07	-0.00	0	0
28029	1	0.00	0.00	0.00	0.00	6	1.0019807	-56.130799	138.00	1	1.100	0.900	0.07	-0.00	0	0
28030	1	13.29	7.20	0.00	0.00	6	0.9882194	-57.399361	69.00	1	1.100	0.900	0.07	-0.00	0	0
28031	1	7.49	3.64	0.00	0.00	6	0.9846634	-57.576885	69.00	1	1.100	0.900	0.07	-0.00	0	0
28032	1	0.00	0.00	0.00	0.00	6	1.0005954	-55.815541	138.00	1	1.100	0.900	0.07	-0.00	0	0
28033	1	10.99	5.40	0.00	0.00	6	0.9911436	-57.119655	69.00	1	1.100	0.900	0.07	-0.00	0	0
28034	1	5.87	3.23	0.00	0.00	6	0.9900595	-57.149640	69.00	1	1.100	0.900	0.07	-0.00	0	0
28035	1	12.10	6.60	0.00	0.00	6	0.9879126	-57.359440	69.00	1	1.100	0.900	0.07	-0.00	0	0
28036	1	3.40	1.99	0.00	0.00	6	0.9901242	-57.144032	69.00	1	1.100	0.900	0.07	-0.00	0	0
28037	1	9.32	5.84	0.00	0.00	6	0.9910869	-57.140310	69.00	1	1.100	0.900	0.07	-0.00	0	0
28038	1	0.00	0.00	0.00	0.00	6	1.0003930	-56.203863	138.00	1	1.100	0.900	0.07	-0.00	0	0
28039	1	7.74	4.47	0.00	0.00	6	0.9910459	-57.392175	69.00	1	1.100	0.900	0.07	-0.00	0	0
28040	1	4.41	2.27	0.00	0.00	6	0.9957992	-57.140941	69.00	1	1.100	0.900	0.07	-0.00	0	0
28041	1	0.00	0.00	0.00	0.00	6	1.0059223	-56.153698	138.00	1	1.100	0.900	0.07	-0.00	0	0
28042	1	6.64	3.35	0.00	0.00	6	1.0050296	-56.050845	138.00	1	1.100	0.900	0.07	-0.00	0	0
28043	1	6.63	3.42	0.00	0.00	6	0.9825115	-57.651993	69.00	1	1.100	0.900	0.07	-0.00	0	0
28044	1	4.76	2.19	0.00	0.00	6	0.9828361	-57.625622	69.00	1	1.100	0.900	0.07	-0.00	0	0
28045	1	7.73	4.34	0.00	0.00	6	0.9835486	-57.614649	69.00	1	1.100	0.900	0.07	-0.00	0	0
28046	1	2.54	1.37	0.00	0.00	6	0.9822986	-57.695954	69.00	1	1.100	0.900	0.07	-0.00	0	0
28047	1	6.08	3.07	0.00	0.00	6	0.9813850	-57.756404	69.00	1	1.100	0.900	0.07	-0.00	0	0
28048	1	7.54	4.03	0.00	0.00	6	0.9812699	-57.775512	69.00	1	1.100	0.900	0.07	-0.00	0	0
28049	1	3.18	1.57	0.00	0.00	6	0.9831907	-57.731362	69.00	1	1.100	0.900	0.07	-0.00	0	0
28050	1	13.28	5.91	0.00	0.00	6	0.9822490	-57.753774	69.00	1	1.100	0.900	0.07	-0.00	0	0
28051	1	2.35	1.40	0.00	0.00	6	0.9876844	-57.556878	69.00	1	1.100	0.900	0.07	-0.00	0	0
28052	1	13.05	7.83	0.00	0.00	6	0.9850858	-57.666016	69.00	1	1.100	0.900	0.07	-0.00	0	0
28053	1	11.47	6.32	0.00	0.00	6	0.9884015	-57.584327	69.00	1	1.100	0.900	0.07	-0.00	0	0
28054	1	9.74	5.02	0.00	0.00	6	0.9858596	-57.694622	69.00	1	1.100	0.900	0.07	-0.00	0	0
28055	1	11.29	6.44	0.00	0.00	6	0.9988374	-57.620502	138.00	1	1.100	0.900	0.07	-0.00	0	0
28056	1	10.73	5.77	0.00	0.00	6	1.0062986	-56.980792	69.00	1	1.100	0.900	0.07	0.00	0	0
28057	1	0.00	0.00	0.00	0.00	6	1.0094597	-56.244255	138.00	1	1.100	0.900	0.07	-0.00	0	0
28058	1	11.82	5.04	0.00	0.00	6	1.0099986	-56.767067	138.00	1	1.100	0.900	0.07	-0.00	0	0
28059	1	18.77	11.45	0.00	0.00	6	1.0011542	-57.319226	138.00	1	1.100	0.900	0.07	-0.00	0	0
28060	1	8.02	4.77	0.00	0.00	6	0.9910070	-57.520173	69.00	1	1.100	0.900	0.07	-0.00	0	0
28061	1	3.15	1.70	0.00	0.00	6	0.9957624	-57.290995	69.00	1	1.100	0.900	0.07	-0.00	0	0
28062	1	0.00	0.00	0.00	0.00	6	1.0127039	-56.319353	138.00	1	1.100	0.900	0.07	-0.00	0	0
28063	1	20.05	7.50	0.00	0.00	6	0.9804143	-57.901065	69.00	1	1.100	0.900	0.07	-0.00	0	0
28064	1	5.66	3.07	0.00	0.00	6	0.9862764	-56.534415	69.00	1	1.100	0.900	0.07	-0.00	0	0
28065	1	54.56	31.47	0.00	0.00	6	1.0107949	-53.598660	500.00	1	1.100	0.900	0.07	-0.00	0	0
28066	1	0.00	0.00	0.00	0.00	6	0.9939000	-55.677869	138.00	1	1.100	0.900	0.07	-0.00	0	0
28067	1	2.79	1.55	0.00	0.00	6	0.9865591	-56.787663	69.00	1	1.100	0.900	0.07	-0.00	0	0
28068	1	1.33	0.62	0.00	0.00	6	0.9842511	-56.820613	69.00	1	1.100	0.900	0.07	-0.00	0	0
28069	1	9.90	4.34	0.00	0.00	6	0.9849411	-57.921548	69.00	1	1.100	0.900	0.07	-0.00	0	0
28070	1	0.00	0.00	0.00	0.00	6	0.9937559	-56.889306	138.00	1	1.100	0.900	0.07	-0.00	0	0
28071	1	0.00	0.00	0.00	0.00	6	1.0051073	-56.568292	138.00	1	1.100	0.900	0.07	-0.00	0	0
28072	1	0.00	0.00	0.00	0.00	6	0.9960215	-56.693720	138.00	1	1.100	0.900	0.07	-0.00	0	0
28073	1	4.94	2.46	0.00	0.00	6	0.9801610	-57.986151	69.00	1	1.100	0.900	0.07	-0.00	0	0
28074	1	3.07	1.47	0.00	0.00	6	0.9786535	-58.006224	69.00	1	1.100	0.900	0.07	-0.00	0	0
28075	1	0.00	0.00	0.00	0.00	6	0.9920873	-56.722950	138.00	1	1.100	0.900	0.07	-0.00	0	0
28076	1	7.56	3.81	0.00	0.00	6	0.9940555	-57.123439	138.00	1	1.100	0.900	0.07	-0.00	0	0
28077	1	8.87	4.52	0.00	0.00	6	0.9815061	-57.926232	69.00	1	1.100	0.900	0.07	-0.00	0	0
28078	1	3.03	1.44	0.00	0.00	6	0.9807668	-57.936215	69.00	1	1.100	0.900	0.07	-0.00	0	0
28079	1	17.65	7.84	0.00	0.00	6	0.9826100	-57.764256	69.00	1	1.100	0.900	0.07	-0.00	0	0
28080	1	10.14	4.97	0.00	0.00	6	0.9784721	-57.955832	69.00	1	1.100	0.900	0.07	-0.00	0	0
28081	1	2.64	1.62	0.00	0.00	6	0.9804338	-57.763156	69.00	1	1.100	0.900	0.07	-0.00	0	0
28082	1	0.00	0.00	0.00	0.00	6	0.9968161	-53.819945	138.00	1	1.100	0.900	0.08	-0.00	0	0
28083	1	14.67	6.27	0.00	0.00	6	0.9553338	-58.221351	69.00	1	1.100	0.900	0.07	-0.00	0	0
28084	1	12.82	2.94	0.00	0.00	6	0.9591132	-57.647320	69.00	1	1.100	0.900	0.07	-0.00	0	0
28085	1	8.31	4.51	0.00	0.00	6	0.9679380	-56.655696	69.00	1	1.100	0.900	0.07	-0.00	0	0
28086	1	10.23	4.27	0.00	0.00	6	0.9666251	-84.330435	69.00	1	1.100	0.900	0.07	-0.00	0	0
28087	1	0.00	0.00	0.00	0.00	6	1.0031028	-81.196065	138.00	1	1.100	0.900	0.07	-0.00	0	0
28088	1	0.00	0.00	0.00	0.00	6	0.9988911	-80.441024	230.00	1	1.100	0.900	0.07	-0.00	0	0
28089	1	10.39	6.48	0.00	0.00	6	0.9901043	-81.543138	138.00	1	1.100	0.900	0.07	-0.00	0	0
28090	1	14.92	7.30	0.00	0.00	6	0.9591511	-84.533477	69.00	1	1.100	0.900	0.06	-0.00	0	0
28091	1	1.39	0.69	0.00	0.00	6	0.9598299	-84.121934	69.00	1	1.100	0.900	0.06	-0.00	0	0
28092	1	0.00	0.00	0.00	0.00	6	0.9799593	-82.676087	138.00	1	1.100	0.900	0.07	-0.00	0	0
28093	1	0.00	0.00	0.00	0.00	6	0.9803452	-82.721941	138.00	1	1.100	0.900	0.07	-0.00	0	0
28094	1	4.73	2.37	0.00	0.00	6	0.9665741	-84.025742	69.00	1	1.100	0.900	0.07	-0.00	0	0
28095	1	6.03	3.31	0.00	0.00	6	0.9673878	-83.964171	69.00	1	1.100	0.900	0.07	-0.00	0	0
28096	1	4.35	2.00	0.00	0.00	6	0.9662878	-84.013261	69.00	1	1.100	0.900	0.07	-0.00	0	0
28097	1	9.30	5.54	0.00	0.00	6	0.9769022	-83.525245	69.00	1	1.100	0.900	0.07	-0.00	0	0
28098	1	23.61	8.04	0.00	0.00	6	0.9788381	-83.453077	69.00	1	1.100	0.900	0.07	-0.00	0	0
28099	1	7.95	4.24	0.00	0.00	6	0.9818832	-82.619999	138.00	1	1.100	0.900	0.07	-0.00	0	0
28100	1	0.00	0.00	0.00	0.00	6	0.9837017	-82.501736	138.00	1	1.100	0.900	0.07	-0.00	0	0
28101	1	0.00	0.00	0.00	0.00	6	0.9889667	-82.118220	138.00	1	1.100	0.900	0.07	-0.00	0	0
28102	1	19.63	9.49	0.00	0.00	6	0.9818090	-82.972945	69.00	1	1.100	0.900	0.07	-0.00	0	0
28103	1	9.23	5.55	0.00	0.00	6	0.9920861	-81.862202	138.00	1	1.100	0.900	0.07	-0.00	0	0
28104	1	0.00	0.00	0.00	0.00	6	0.9963037	-81.646217	138.00	1	1.100	0.900	0.07	-0.00	0	0
28105	1	0.00	0.00	0.00	0.00	6	0.9989359	-81.581427	138.00	1	1.100	0.900	0.07	-0.00	0	0
28106	1	15.86	7.75	0.00	0.00	6	0.9848898	-82.953971	69.00	1	1.100	0.900	0.07	-0.00	0	0
28107	1	20.85	9.24	0.00	0.00	6	0.9841209	-82.983675	69.00	1	1.100	0.900	0.07	-0.00	0	0
28108	1	0.00	0.00	0.00	0.00	6	0.9954826	-81.828259	138.00	1	1.100	0.900	0.07	-0.00	0	0
28109	1	8.51	4.16	0.00	0.00	6	0.9798287	-83.350035	69.00	1	1.100	0.900	0.07	-0.00	0	0
28110	1	15.93	8.79	0.00	0.00	6	0.9795496	-83.430634	69.00	1	1.100	0.900	0.07	-0.00	0	0
28111	1	6.50	3.53	0.00	0.00	6	0.9799786	-83.324780	69.00	1	1.100	0.900	0.07	-0.00	0	0
28112	1	0.00	0.00	0.00	0.00	6	1.0111821	-80.215042	230.00	1	1.100	0.900	0.07	-0.00	0	0
28113	1	15.01	7.34	0.00	0.00	6	0.9846833	-83.002702	69.00	1	1.100	0.900	0.07	-0.00	0	0
28114	1	6.66	3.49	0.00	0.00	6	0.9818233	-83.062789	69.00	1	1.100	0.900	0.07	-0.00	0	0
28115	1	10.42	5.38	0.00	0.00	6	0.9807664	-83.092320	69.00	1	1.100	0.900	0.07	-0.00	0	0
28116	1	6.17	3.72	0.00	0.00	6	0.9817430	-83.051811	69.00	1	1.100	0.900	0.07	-0.00	0	0
28117	1	9.54	5.49	0.00	0.00	6	0.9794302	-83.159553	69.00	1	1.100	0.900	0.07	-0.00	0	0
28118	1	9.04	4.16	0.00	0.00	6	0.9818551	-83.094835	69.00	1	1.100	0.900	0.07	-0.00	0	0
28119	1	8.88	4.93	0.00	0.00	6	0.9798175	-83.186929	69.00	1	1.100	0.900	0.07	-0.00	0	0
28120	1	1.40	0.78	0.00	0.00	6	0.9795032	-83.189215	69.00	1	1.100	0.900	0.07	-0.00	0	0
...
];

%% generator data 
mpc.gen = [
27810	1080.00	198.72	523.10	-360.00	1.0200	100.00	1	1080.00	987.00	0.00	0.00	0.00	0.00	0.00	0.00	0	0	0	0	0.0000	0	0	0	0
27810	1080.00	198.72	523.10	-360.00	1.0200	100.00	1	1080.00	981.00	0.00	0.00	0.00	0.00	0.00	0.00	0	0	0	0	0.0000	0	0	0	0
27811	399.17	243.83	356.40	-245.30	1.0200	100.00	1	735.90	350.00	0.00	0.00	0.00	0.00	0.00	0.00	0	0	0	0	735.9000	0	0	0	0
27811	399.17	243.83	356.40	-245.30	1.0200	100.00	1	735.90	350.00	0.00	0.00	0.00	0.00	0.00	0.00	0	0	0	0	735.9000	0	0	0	0
27812	677.22	165.16	328.90	-226.30	1.0200	100.00	1	679.00	200.00	0.00	0.00	0.00	0.00	0.00	0.00	0	0	0	0	679.0000	0	0	0	0
27812	446.92	165.16	328.90	-226.30	1.0200	100.00	1	679.00	200.00	0.00	0.00	0.00	0.00	0.00	0.00	0	0	0	0	679.0000	0	0	0	0
27813	285.49	227.60	269.40	-185.40	1.0200	100.00	1	556.20	90.00	0.00	0.00	0.00	0.00	0.00	0.00	0	0	0	0	556.2000	0	0	0	0
27813	285.49	227.60	269.40	-185.40	1.0200	100.00	1	556.20	80.00	0.00	0.00	0.00	0.00	0.00	0.00	0	0	0	0	556.2000	0	0	0	0
27814	168.58	125.90	125.90	-67.70	1.0200	100.00	1	203.20	155.00	0.00	0.00	0.00	0.00	0.00	0.00	0	0	0	0	203.2000	0	0	0	0
27814	238.42	225.00	225.00	-154.80	1.0200	100.00	1	464.50	95.00	0.00	0.00	0.00	0.00	0.00	0.00	0	0	0	0	464.5000	0	0	0	0
27814	238.42	225.00	225.00	-154.80	1.0200	100.00	1	464.50	90.00	0.00	0.00	0.00	0.00	0.00	0.00	0	0	0	0	464.5000	0	0	0	0
27814	77.47	80.40	80.40	-43.30	1.0200	100.00	1	129.80	68.79	0.00	0.00	0.00	0.00	0.00	0.00	0	0	0	0	129.8000	0	0	0	0
27815	31.82	38.40	38.40	-20.70	1.0200	100.00	1	62.00	14.00	0.00	0.00	0.00	0.00	0.00	0.00	0	0	0	0	62.0000	0	0	0	0
27815	228.67	89.98	215.80	-148.50	1.0200	100.00	1	445.50	190.00	0.00	0.00	0.00	0.00	0.00	0.00	0	0	0	0	445.5000	0	0	0	0
27815	228.67	89.98	215.80	-148.50	1.0200	100.00	1	445.50	185.00	0.00	0.00	0.00	0.00	0.00	0.00	0	0	0	0	445.5000	0	0	0	0
27815	228.67	89.98	215.80	-148.50	1.0200	100.00	1	445.50	185.00	0.00	0.00	0.00	0.00	0.00	0.00	0	0	0	0	445.5000	0	0	0	0
27815	249.46	89.98	235.40	-162.00	1.0200	100.00	1	486.00	157.00	0.00	0.00	0.00	0.00	0.00	0.00	0	0	0	0	486.0000	0	0	0	0
27816	442.49	62.32	358.00	-246.40	1.0200	100.00	1	739.20	225.00	0.00	0.00	0.00	0.00	0.00	0.00	0	0	0	0	739.2000	0	0	0	0
27816	442.49	62.32	358.00	-246.40	1.0200	100.00	1	739.20	225.00	0.00	0.00	0.00	0.00	0.00	0.00	0	0	0	0	739.2000	0	0	0	0
27816	890.40	62.32	431.20	-296.80	1.0200	100.00	1	890.40	311.64	0.00	0.00	0.00	0.00	0.00	0.00	0	0	0	0	0.0000	0	0	0	0
27816	226.10	62.32	213.30	-146.80	1.0200	100.00	1	440.50	100.00	0.00	0.00	0.00	0.00	0.00	0.00	0	0	0	0	440.5000	0	0	0	0
27816	268.86	62.32	253.70	-174.60	1.0200	100.00	1	523.80	120.00	0.00	0.00	0.00	0.00	0.00	0.00	0	0	0	0	523.8000	0	0	0	0
27817	206.34	73.11	182.00	-182.00	1.0200	100.00	1	402.00	80.40	0.00	0.00	0.00	0.00	0.00	0.00	0	0	0	0	402.0000	0	0	0	0
27817	206.34	73.11	182.00	-182.00	1.0200	100.00	1	402.00	80.40	0.00	0.00	0.00	0.00	0.00	0.00	0	0	0	0	402.0000	0	0	0	0
27819	64.67	61.00	61.00	-42.00	1.0200	100.00	1	126.00	30.00	0.00	0.00	0.00	0.00	0.00	0.00	0	0	0	0	126.0000	0	0	0	0
27819	13.65	12.90	12.90	-8.90	1.0200	100.00	1	26.60	3.00	0.00	0.00	0.00	0.00	0.00	0.00	0	0	0	0	26.6000	0	0	0	0
27819	53.13	50.10	50.10	-34.50	1.0200	100.00	1	103.50	25.00	0.00	0.00	0.00	0.00	0.00	0.00	0	0	0	0	103.5000	0	0	0	0
27819	156.64	120.60	120.60	-83.00	1.0200	100.00	1	249.00	140.00	0.00	0.00	0.00	0.00	0.00	0.00	0	0	0	0	249.0000	0	0	0	0
27819	204.31	152.78	176.20	-121.30	1.0200	100.00	1	363.80	180.00	0.00	0.00	0.00	0.00	0.00	0.00	0	0	0	0	363.8000	0	0	0	0
27819	120.00	58.10	58.10	-40.00	1.0200	100.00	1	120.00	120.00	0.00	0.00	0.00	0.00	0.00	0.00	0	0	0	0	120.0000	0	0	0	0
27820	135.76	140.50	140.50	-140.50	1.0200	100.00	1	310.40	62.08	0.00	0.00	0.00	0.00	0.00	0.00	0	0	0	0	310.4000	0	0	0	0
27820	159.32	140.50	140.50	-140.50	1.0200	100.00	1	310.40	62.08	0.00	0.00	0.00	0.00	0.00	0.00	0	0	0	0	310.4000	0	0	0	0
27821	385.21	100.95	326.60	-175.70	1.0200	100.00	1	527.00	350.00	0.00	0.00	0.00	0.00	0.00	0.00	0	0	0	0	527.0000	0	0	0	0
27821	385.21	100.95	326.60	-175.70	1.0200	100.00	1	527.00	350.00	0.00	0.00	0.00	0.00	0.00	0.00	0	0	0	0	527.0000	0	0	0	0
27821	254.32	100.95	184.70	-99.30	1.0200	100.00	1	298.00	232.00	0.00	0.00	0.00	0.00	0.00	0.00	0	0	0	0	298.0000	0	0	0	0
27821	251.91	100.95	184.70	-99.30	1.0200	100.00	1	298.00	232.00	0.00	0.00	0.00	0.00	0.00	0.00	0	0	0	0	298.0000	0	0	0	0
27821	254.32	100.95	184.70	-99.30	1.0200	100.00	1	298.00	232.00	0.00	0.00	0.00	0.00	0.00	0.00	0	0	0	0	298.0000	0	0	0	0
27821	254.32	100.95	184.70	-99.30	1.0200	100.00	1	298.00	232.00	0.00	0.00	0.00	0.00	0.00	0.00	0	0	0	0	298.0000	0	0	0	0
27821	254.32	100.95	184.70	-99.30	1.0200	100.00	1	298.00	232.00	0.00	0.00	0.00	0.00	0.00	0.00	0	0	0	0	298.0000	0	0	0	0
27821	251.91	100.95	184.70	-99.30	1.0200	100.00	1	298.00	232.00	0.00	0.00	0.00	0.00	0.00	0.00	0	0	0	0	298.0000	0	0	0	0
27822	31.87	30.10	30.10	-20.70	1.0200	100.00	1	62.10	15.00	0.00	0.00	0.00	0.00	0.00	0.00	0	0	0	0	62.1000	0	0	0	0
27822	31.87	30.10	30.10	-20.70	1.0200	100.00	1	62.10	15.00	0.00	0.00	0.00	0.00	0.00	0.00	0	0	0	0	62.1000	0	0	0	0
27822	31.87	30.10	30.10	-20.70	1.0200	100.00	1	62.10	15.00	0.00	0.00	0.00	0.00	0.00	0.00	0	0	0	0	62.1000	0	0	0	0
27822	31.87	30.10	30.10	-20.70	1.0200	100.00	1	62.10	15.00	0.00	0.00	0.00	0.00	0.00	0.00	0	0	0	0	62.1000	0	0	0	0
27822	289.34	141.40	273.00	-187.90	1.0200	100.00	1	563.70	50.00	0.00	0.00	0.00	0.00	0.00	0.00	0	0	0	0	563.7000	0	0	0	0
27822	199.88	141.40	184.40	-99.20	1.0200	100.00	1	297.50	180.00	0.00	0.00	0.00	0.00	0.00	0.00	0	0	0	0	297.5000	0	0	0	0
27822	199.88	141.40	184.40	-99.20	1.0200	100.00	1	297.50	180.00	0.00	0.00	0.00	0.00	0.00	0.00	0	0	0	0	297.5000	0	0	0	0
27823	290.83	180.70	180.70	-97.20	1.0200	100.00	1	291.60	90.00	0.00	0.00	0.00	0.00	0.00	0.00	0	0	0	0	291.6000	0	0	0	0
27824	12.67	15.20	15.20	-8.20	1.0200	100.00	1	24.60	3.00	0.00	0.00	0.00	0.00	0.00	0.00	0	0	0	0	24.6000	0	0	0	0
27824	12.67	15.20	15.20	-8.20	1.0200	100.00	1	24.60	3.00	0.00	0.00	0.00	0.00	0.00	0.00	0	0	0	0	24.6000	0	0	0	0
27824	38.50	46.50	46.50	-25.00	1.0200	100.00	1	75.00	21.00	0.00	0.00	0.00	0.00	0.00	0.00	0	0	0	0	75.0000	0	0	0	0
27824	56.42	59.60	59.60	-32.00	1.0200	100.00	1	96.10	50.00	0.00	0.00	0.00	0.00	0.00	0.00	0	0	0	0	96.1000	0	0	0	0
27824	128.68	155.40	155.40	-83.60	1.0200	100.00	1	250.70	65.00	0.00	0.00	0.00	0.00	0.00	0.00	0	0	0	0	250.7000	0	0	0	0
27825	112.72	110.63	136.10	-73.20	1.0200	100.00	1	219.60	80.00	0.00	0.00	0.00	0.00	0.00	0.00	0	0	0	0	219.6000	0	0	0	0
27825	98.45	110.63	118.90	-63.90	1.0200	100.00	1	191.80	65.00	0.00	0.00	0.00	0.00	0.00	0.00	0	0	0	0	191.8000	0	0	0	0
27826	28.44	26.80	26.80	-18.50	1.0200	100.00	1	55.40	20.00	0.00	0.00	0.00	0.00	0.00	0.00	0	0	0	0	55.4000	0	0	0	0
27826	28.44	26.80	26.80	-18.50	1.0200	100.00	1	55.40	20.00	0.00	0.00	0.00	0.00	0.00	0.00	0	0	0	0	55.4000	0	0	0	0
27826	28.44	26.80	26.80	-18.50	1.0200	100.00	1	55.40	20.00	0.00	0.00	0.00	0.00	0.00	0.00	0	0	0	0	55.4000	0	0	0	0
27826	28.44	26.80	26.80	-18.50	1.0200	100.00	1	55.40	20.00	0.00	0.00	0.00	0.00	0.00	0.00	0	0	0	0	55.4000	0	0	0	0
27826	216.20	127.22	204.00	-140.40	1.0200	100.00	1	421.20	151.63	0.00	0.00	0.00	0.00	0.00	0.00	0	0	0	0	421.2000	0	0	0	0
27826	107.60	127.22	129.00	-69.40	1.0200	100.00	1	208.20	93.69	0.00	0.00	0.00	0.00	0.00	0.00	0	0	0	0	208.2000	0	0	0	0
27826	107.60	127.22	129.00	-69.40	1.0200	100.00	1	208.20	93.69	0.00	0.00	0.00	0.00	0.00	0.00	0	0	0	0	208.2000	0	0	0	0
27826	107.60	127.22	129.00	-69.40	1.0200	100.00	1	208.20	93.69	0.00	0.00	0.00	0.00	0.00	0.00	0	0	0	0	208.2000	0	0	0	0
27826	107.60	127.22	129.00	-69.40	1.0200	100.00	1	208.20	93.69	0.00	0.00	0.00	0.00	0.00	0.00	0	0	0	0	208.2000	0	0	0	0
27827	113.36	55.77	123.90	-66.70	1.0200	100.00	1	200.00	100.00	0.00	0.00	0.00	0.00	0.00	0.00	0	0	0	0	200.0000	0	0	0	0
27827	113.36	55.77	123.90	-66.70	1.0200	100.00	1	200.00	100.00	0.00	0.00	0.00	0.00	0.00	0.00	0	0	0	0	200.0000	0	0	0	0
27827	113.36	55.77	123.90	-66.70	1.0200	100.00	1	200.00	100.00	0.00	0.00	0.00	0.00	0.00	0.00	0	0	0	0	200.0000	0	0	0	0
27828	108.36	123.90	123.90	-66.70	1.0200	100.00	1	200.00	95.00	0.00	0.00	0.00	0.00	0.00	0.00	0	0	0	0	200.0000	0	0	0	0
27828	54.98	46.20	46.20	-24.80	1.0200	100.00	1	74.50	50.00	0.00	0.00	0.00	0.00	0.00	0.00	0	0	0	0	74.5000	0	0	0	0
27829	143.93	56.71	123.60	-66.50	1.0200	100.00	1	199.40	100.00	0.00	0.00	0.00	0.00	0.00	0.00	0	0	0	0	199.4000	0	0	0	0
27829	143.93	56.71	123.60	-66.50	1.0200	100.00	1	199.40	100.00	0.00	0.00	0.00	0.00	0.00	0.00	0	0	0	0	199.4000	0	0	0	0
27830	102.14	15.41	123.30	-66.30	1.0200	100.00	1	199.00	80.00	0.00	0.00	0.00	0.00	0.00	0.00	0	0	0	0	199.0000	0	0	0	0
27830	102.14	15.41	123.30	-66.30	1.0200	100.00	1	199.00	80.00	0.00	0.00	0.00	0.00	0.00	0.00	0	0	0	0	199.0000	0	0	0	0
27830	97.01	15.41	117.10	-63.00	1.0200	100.00	1	189.00	45.00	0.00	0.00	0.00	0.00	0.00	0.00	0	0	0	0	189.0000	0	0	0	0
27831	30.80	37.20	37.20	-20.00	1.0200	100.00	1	60.00	12.00	0.00	0.00	0.00	0.00	0.00	0.00	0	0	0	0	60.0000	0	0	0	0
27831	30.80	37.20	37.20	-20.00	1.0200	100.00	1	60.00	12.00	0.00	0.00	0.00	0.00	0.00	0.00	0	0	0	0	60.0000	0	0	0	0
27831	13.83	16.70	16.70	-9.00	1.0200	100.00	1	27.00	3.00	0.00	0.00	0.00	0.00	0.00	0.00	0	0	0	0	27.0000	0	0	0	0
27831	38.50	46.50	46.50	-25.00	1.0200	100.00	1	75.00	30.00	0.00	0.00	0.00	0.00	0.00	0.00	0	0	0	0	75.0000	0	0	0	0
27831	137.32	160.60	160.60	-86.40	1.0200	100.00	1	259.20	120.00	0.00	0.00	0.00	0.00	0.00	0.00	0	0	0	0	259.2000	0	0	0	0
27831	102.09	123.30	123.30	-66.30	1.0200	100.00	1	198.90	70.00	0.00	0.00	0.00	0.00	0.00	0.00	0	0	0	0	198.9000	0	0	0	0
27832	115.28	53.29	123.20	-66.30	1.0200	100.00	1	198.80	102.00	0.00	0.00	0.00	0.00	0.00	0.00	0	0	0	0	198.8000	0	0	0	0
27832	115.29	53.29	123.30	-66.30	1.0200	100.00	1	198.90	102.00	0.00	0.00	0.00	0.00	0.00	0.00	0	0	0	0	198.9000	0	0	0	0
27832	115.29	53.29	123.30	-66.30	1.0200	100.00	1	198.90	102.00	0.00	0.00	0.00	0.00	0.00	0.00	0	0	0	0	198.9000	0	0	0	0
27832	115.29	53.29	123.30	-66.30	1.0200	100.00	1	198.90	102.00	0.00	0.00	0.00	0.00	0.00	0.00	0	0	0	0	198.9000	0	0	0	0
27832	115.29	53.29	123.30	-66.30	1.0200	100.00	1	198.90	102.00	0.00	0.00	0.00	0.00	0.00	0.00	0	0	0	0	198.9000	0	0	0	0
27833	143.33	30.17	121.00	-65.10	1.0200	100.00	1	195.20	131.00	0.00	0.00	0.00	0.00	0.00	0.00	0	0	0	0	195.2000	0	0	0	0
27833	76.54	30.17	51.40	-27.60	1.0200	100.00	1	82.90	71.00	0.00	0.00	0.00	0.00	0.00	0.00	0	0	0	0	82.9000	0	0	0	0
27834	100.75	-10.10	85.10	-58.60	1.0200	100.00	1	175.80	89.00	0.00	0.00	0.00	0.00	0.00	0.00	0	0	0	0	175.8000	0	0	0	0
27834	100.75	-10.10	85.10	-58.60	1.0200	100.00	1	175.80	89.00	0.00	0.00	0.00	0.00	0.00	0.00	0	0	0	0	175.8000	0	0	0	0
27834	101.89	-10.10	114.50	-64.30	1.0200	100.00	1	192.90	89.00	0.00	0.00	0.00	0.00	0.00	0.00	0	0	0	0	192.9000	0	0	0	0
27834	100.75	-10.10	109.00	-58.60	1.0200	100.00	1	175.80	89.00	0.00	0.00	0.00	0.00	0.00	0.00	0	0	0	0	175.8000	0	0	0	0
27834	100.75	-10.10	109.00	-58.60	1.0200	100.00	1	175.80	89.00	0.00	0.00	0.00	0.00	0.00	0.00	0	0	0	0	175.8000	0	0	0	0
27834	68.47	-10.10	82.70	-44.50	1.0200	100.00	1	133.40	33.00	0.00	0.00	0.00	0.00	0.00	0.00	0	0	0	0	133.4000	0	0	0	0
27835	133.45	57.45	161.10	-86.70	1.0200	100.00	1	260.00	60.00	0.00	0.00	0.00	0.00	0.00	0.00	0	0	0	0	260.0000	0	0	0	0
27835	112.84	57.45	119.10	-64.00	1.0200	100.00	1	192.10	100.00	0.00	0.00	0.00	0.00	0.00	0.00	0	0	0	0	192.1000	0	0	0	0
27835	112.84	57.45	119.10	-64.00	1.0200	100.00	1	192.10	100.00	0.00	0.00	0.00	0.00	0.00	0.00	0	0	0	0	192.1000	0	0	0	0
27836	35.88	43.30	43.30	-23.30	1.0200	100.00	1	69.90	14.00	0.00	0.00	0.00	0.00	0.00	0.00	0	0	0	0	69.9000	0	0	0	0
27836	97.47	92.00	92.00	-63.30	1.0200	100.00	1	189.90	78.00	0.00	0.00	0.00	0.00	0.00	0.00	0	0	0	0	189.9000	0	0	0	0
27836	97.47	92.00	92.00	-63.30	1.0200	100.00	1	189.90	78.00	0.00	0.00	0.00	0.00	0.00	0.00	0	0	0	0	189.9000	0	0	0	0
27836	97.47	92.00	92.00	-63.30	1.0200	100.00	1	189.90	78.00	0.00	0.00	0.00	0.00	0.00	0.00	0	0	0	0	189.9000	0	0	0	0
27836	122.88	148.40	148.40	-79.80	1.0200	100.00	1	239.40	47.00	0.00	0.00	0.00	0.00	0.00	0.00	0	0	0	0	239.4000	0	0	0	0
27836	35.88	43.30	43.30	-23.30	1.0200	100.00	1	69.90	14.00	0.00	0.00	0.00	0.00	0.00	0.00	0	0	0	0	69.9000	0	0	0	0
27836	35.88	43.30	43.30	-23.30	1.0200	100.00	1	69.90	14.00	0.00	0.00	0.00	0.00	0.00	0.00	0	0	0	0	69.9000	0	0	0	0
27836	35.88	43.30	43.30	-23.30	1.0200	100.00	1	69.90	14.00	0.00	0.00	0.00	0.00	0.00	0.00	0	0	0	0	69.9000	0	0	0	0
27836	228.77	157.88	215.90	-148.60	1.0200	100.00	1	445.70	52.00	0.00	0.00	0.00	0.00	0.00	0.00	0	0	0	0	445.7000	0	0	0	0
27836	97.47	92.00	92.00	-63.30	1.0200	100.00	1	189.90	78.00	0.00	0.00	0.00	0.00	0.00	0.00	0	0	0	0	189.9000	0	0	0	0
27836	97.47	92.00	92.00	-63.30	1.0200	100.00	1	189.90	78.00	0.00	0.00	0.00	0.00	0.00	0.00	0	0	0	0	189.9000	0	0	0	0
27836	97.47	92.00	92.00	-63.30	1.0200	100.00	1	189.90	78.00	0.00	0.00	0.00	0.00	0.00	0.00	0	0	0	0	189.9000	0	0	0	0
27836	97.47	92.00	92.00	-63.30	1.0200	100.00	1	189.90	78.00	0.00	0.00	0.00	0.00	0.00	0.00	0	0	0	0	189.9000	0	0	0	0
27837	80.18	57.25	96.80	-52.10	1.0200	100.00	1	156.20	53.46	0.00	0.00	0.00	0.00	0.00	0.00	0	0	0	0	156.2000	0	0	0	0
27837	31.82	30.00	30.00	-20.70	1.0200	100.00	1	62.00	5.00	0.00	0.00	0.00	0.00	0.00	0.00	0	0	0	0	62.0000	0	0	0	0
27837	31.82	30.00	30.00	-20.70	1.0200	100.00	1	62.00	5.00	0.00	0.00	0.00	0.00	0.00	0.00	0	0	0	0	62.0000	0	0	0	0
27837	31.82	30.00	30.00	-20.70	1.0200	100.00	1	62.00	5.00	0.00	0.00	0.00	0.00	0.00	0.00	0	0	0	0	62.0000	0	0	0	0
27837	9.14	30.00	30.00	-20.70	1.0200	100.00	1	62.00	5.00	0.00	0.00	0.00	0.00	0.00	0.00	0	0	0	0	62.0000	0	0	0	0
27837	171.10	57.25	112.20	-60.30	1.0200	100.00	1	181.00	159.00	0.00	0.00	0.00	0.00	0.00	0.00	0	0	0	0	181.0000	0	0	0	0
27837	31.09	57.25	112.20	-60.30	1.0200	100.00	1	181.00	19.00	0.00	0.00	0.00	0.00	0.00	0.00	0	0	0	0	181.0000	0	0	0	0
27837	223.84	57.25	270.30	-145.40	1.0200	100.00	1	436.10	157.00	0.00	0.00	0.00	0.00	0.00	0.00	0	0	0	0	436.1000	0	0	0	0
27837	102.57	57.25	116.60	-62.70	1.0200	100.00	1	188.20	90.00	0.00	0.00	0.00	0.00	0.00	0.00	0	0	0	0	188.2000	0	0	0	0
27837	102.57	57.25	116.60	-62.70	1.0200	100.00	1	188.20	90.00	0.00	0.00	0.00	0.00	0.00	0.00	0	0	0	0	188.2000	0	0	0	0
27837	102.57	57.25	116.60	-62.70	1.0200	100.00	1	188.20	90.00	0.00	0.00	0.00	0.00	0.00	0.00	0	0	0	0	188.2000	0	0	0	0
27837	31.82	30.00	30.00	-20.70	1.0200	100.00	1	62.00	5.00	0.00	0.00	0.00	0.00	0.00	0.00	0	0	0	0	62.0000	0	0	0	0
27837	102.57	57.25	116.60	-62.70	1.0200	100.00	1	188.20	90.00	0.00	0.00	0.00	0.00	0.00	0.00	0	0	0	0	188.2000	0	0	0	0
27837	102.57	57.25	116.60	-62.70	1.0200	100.00	1	188.20	90.00	0.00	0.00	0.00	0.00	0.00	0.00	0	0	0	0	188.2000	0	0	0	0
27837	102.57	57.25	116.60	-62.70	1.0200	100.00	1	188.20	90.00	0.00	0.00	0.00	0.00	0.00	0.00	0	0	0	0	188.2000	0	0	0	0
27837	31.82	30.00	30.00	-20.70	1.0200	100.00	1	62.00	5.00	0.00	0.00	0.00	0.00	0.00	0.00	0	0	0	0	62.0000	0	0	0	0
27837	31.82	30.00	30.00	-20.70	1.0200	100.00	1	62.00	5.00	0.00	0.00	0.00	0.00	0.00	0.00	0	0	0	0	62.0000	0	0	0	0
27837	31.82	30.00	30.00	-20.70	1.0200	100.00	1	62.00	5.00	0.00	0.00	0.00	0.00	0.00	0.00	0	0	0	0	62.0000	0	0	0	0
27837	31.82	30.00	30.00	-20.70	1.0200	100.00	1	62.00	5.00	0.00	0.00	0.00	0.00	0.00	0.00	0	0	0	0	62.0000	0	0	0	0
27837	31.82	30.00	30.00	-20.70	1.0200	100.00	1	62.00	5.00	0.00	0.00	0.00	0.00	0.00	0.00	0	0	0	0	62.0000	0	0	0	0
27837	31.82	30.00	30.00	-20.70	1.0200	100.00	1	62.00	5.00	0.00	0.00	0.00	0.00	0.00	0.00	0	0	0	0	62.0000	0	0	0	0
27837	31.82	30.00	30.00	-20.70	1.0200	100.00	1	62.00	5.00	0.00	0.00	0.00	0.00	0.00	0.00	0	0	0	0	62.0000	0	0	0	0
27838	324.14	51.12	223.40	-145.40	1.0200	100.00	1	436.10	295.00	0.00	0.00	0.00	0.00	0.00	0.00	0	0	0	0	436.1000	0	0	0	0
27838	97.26	51.12	116.60	-62.70	1.0200	100.00	1	188.20	84.69	0.00	0.00	0.00	0.00	0.00	0.00	0	0	0	0	188.2000	0	0	0	0
27838	56.23	51.12	96.80	-52.10	1.0200	100.00	1	156.20	56.23	0.00	0.00	0.00	0.00	0.00	0.00	0	0	0	0	156.2000	0	0	0	0
27838	324.14	51.12	223.40	-145.40	1.0200	100.00	1	436.10	295.00	0.00	0.00	0.00	0.00	0.00	0.00	0	0	0	0	436.1000	0	0	0	0
27838	97.26	51.12	116.60	-62.70	1.0200	100.00	1	188.20	84.69	0.00	0.00	0.00	0.00	0.00	0.00	0	0	0	0	188.2000	0	0	0	0
27838	97.26	51.12	116.60	-62.70	1.0200	100.00	1	188.20	84.69	0.00	0.00	0.00	0.00	0.00	0.00	0	0	0	0	188.2000	0	0	0	0
27838	97.26	51.12	116.60	-62.70	1.0200	100.00	1	188.20	84.69	0.00	0.00	0.00	0.00	0.00	0.00	0	0	0	0	188.2000	0	0	0	0
27838	97.26	51.12	116.60	-62.70	1.0200	100.00	1	188.20	84.69	0.00	0.00	0.00	0.00	0.00	0.00	0	0	0	0	188.2000	0	0	0	0
27838	97.26	51.12	116.60	-62.70	1.0200	100.00	1	188.20	84.69	0.00	0.00	0.00	0.00	0.00	0.00	0	0	0	0	188.2000	0	0	0	0
27838	97.26	51.12	116.60	-62.70	1.0200	100.00	1	188.20	84.69	0.00	0.00	0.00	0.00	0.00	0.00	0	0	0	0	188.2000	0	0	0	0
27838	97.26	51.12	116.60	-62.70	1.0200	100.00	1	188.20	84.69	0.00	0.00	0.00	0.00	0.00	0.00	0	0	0	0	188.2000	0	0	0	0
27839	443.12	54.38	442.30	-287.80	1.0200	100.00	1	863.30	190.00	0.00	0.00	0.00	0.00	0.00	0.00	0	0	0	0	863.3000	0	0	0	0
27839	443.12	54.38	442.30	-287.80	1.0200	100.00	1	863.30	190.00	0.00	0.00	0.00	0.00	0.00	0.00	0	0	0	0	863.3000	0	0	0	0
27839	341.52	54.38	292.40	-157.30	1.0200	100.00	1	471.80	310.00	0.00	0.00	0.00	0.00	0.00	0.00	0	0	0	0	471.8000	0	0	0	0
27839	97.26	54.38	116.60	-62.70	1.0200	100.00	1	188.20	84.69	0.00	0.00	0.00	0.00	0.00	0.00	0	0	0	0	188.2000	0	0	0	0
27839	97.26	54.38	116.60	-62.70	1.0200	100.00	1	188.20	84.69	0.00	0.00	0.00	0.00	0.00	0.00	0	0	0	0	188.2000	0	0	0	0
27839	97.26	54.38	116.60	-62.70	1.0200	100.00	1	188.20	84.69	0.00	0.00	0.00	0.00	0.00	0.00	0	0	0	0	188.2000	0	0	0	0
27839	97.26	54.38	116.60	-62.70	1.0200	100.00	1	188.20	84.69	0.00	0.00	0.00	0.00	0.00	0.00	0	0	0	0	188.2000	0	0	0	0
27840	932.11	-31.57	478.80	-311.50	1.0100	100.00	1	934.50	190.00	0.00	0.00	0.00	0.00	0.00	0.00	0	0	0	0	934.5000	0	0	0	0
27840	203.46	-31.57	153.00	-68.00	1.0100	100.00	1	204.00	143.00	0.00	0.00	0.00	0.00	0.00	0.00	0	0	0	0	204.0000	0	0	0	0
27840	203.46	-31.57	153.00	-68.00	1.0100	100.00	1	204.00	143.00	0.00	0.00	0.00	0.00	0.00	0.00	0	0	0	0	204.0000	0	0	0	0
27840	203.46	-31.57	153.00	-68.00	1.0100	100.00	1	204.00	143.00	0.00	0.00	0.00	0.00	0.00	0.00	0	0	0	0	204.0000	0	0	0	0
27840	203.46	-31.57	153.00	-68.00	1.0100	100.00	1	204.00	143.00	0.00	0.00	0.00	0.00	0.00	0.00	0	0	0	0	204.0000	0	0	0	0
27840	797.75	-31.57	478.80	-311.50	1.0100	100.00	1	934.50	190.00	0.00	0.00	0.00	0.00	0.00	0.00	0	0	0	0	934.5000	0	0	0	0
27840	470.52	-31.57	292.30	-157.20	1.0100	100.00	1	471.70	320.00	0.00	0.00	0.00	0.00	0.00	0.00	0	0	0	0	471.7000	0	0	0	0
27840	187.69	-31.57	116.60	-62.70	1.0100	100.00	1	188.20	84.69	0.00	0.00	0.00	0.00	0.00	0.00	0	0	0	0	188.2000	0	0	0	0
27840	187.69	-31.57	116.60	-62.70	1.0100	100.00	1	188.20	84.69	0.00	0.00	0.00	0.00	0.00	0.00	0	0	0	0	188.2000	0	0	0	0
27840	187.69	-31.57	116.60	-62.70	1.0100	100.00	1	188.20	84.69	0.00	0.00	0.00	0.00	0.00	0.00	0	0	0	0	188.2000	0	0	0	0
27840	187.69	-31.57	116.60	-62.70	1.0100	100.00	1	188.20	84.69	0.00	0.00	0.00	0.00	0.00	0.00	0	0	0	0	188.2000	0	0	0	0
27840	203.46	-31.57	153.00	-68.00	1.0100	100.00	1	204.00	143.00	0.00	0.00	0.00	0.00	0.00	0.00	0	0	0	0	204.0000	0	0	0	0
27840	203.46	-31.57	153.00	-68.00	1.0100	100.00	1	204.00	143.00	0.00	0.00	0.00	0.00	0.00	0.00	0	0	0	0	204.0000	0	0	0	0
27841	760.00	72.54	368.10	-253.30	1.0200	100.00	1	760.00	424.00	0.00	0.00	0.00	0.00	0.00	0.00	0	0	0	0	0.0000	0	0	0	0
27841	877.20	72.54	424.80	-292.40	1.0200	100.00	1	877.20	420.00	0.00	0.00	0.00	0.00	0.00	0.00	0	0	0	0	0.0000	0	0	0	0
27841	341.54	72.54	292.50	-157.30	1.0200	100.00	1	472.00	310.00	0.00	0.00	0.00	0.00	0.00	0.00	0	0	0	0	472.0000	0	0	0	0
27841	206.34	72.54	249.10	-134.00	1.0200	100.00	1	402.00	90.00	0.00	0.00	0.00	0.00	0.00	0.00	0	0	0	0	402.0000	0	0	0	0
27841	206.34	72.54	249.10	-134.00	1.0200	100.00	1	402.00	90.00	0.00	0.00	0.00	0.00	0.00	0.00	0	0	0	0	402.0000	0	0	0	0
27841	97.16	72.54	116.50	-62.70	1.0200	100.00	1	188.00	84.60	0.00	0.00	0.00	0.00	0.00	0.00	0	0	0	0	188.0000	0	0	0	0
27841	97.16	72.54	116.50	-62.70	1.0200	100.00	1	188.00	84.60	0.00	0.00	0.00	0.00	0.00	0.00	0	0	0	0	188.0000	0	0	0	0
27841	97.16	72.54	116.50	-62.70	1.0200	100.00	1	188.00	84.60	0.00	0.00	0.00	0.00	0.00	0.00	0	0	0	0	188.0000	0	0	0	0
27841	97.16	72.54	116.50	-62.70	1.0200	100.00	1	188.00	84.60	0.00	0.00	0.00	0.00	0.00	0.00	0	0	0	0	188.0000	0	0	0	0
27842	17.55	21.20	21.20	-11.40	1.0200	100.00	1	34.20	5.00	0.00	0.00	0.00	0.00	0.00	0.00	0	0	0	0	34.2000	0	0	0	0
27842	17.55	21.20	21.20	-11.40	1.0200	100.00	1	34.20	5.00	0.00	0.00	0.00	0.00	0.00	0.00	0	0	0	0	34.2000	0	0	0	0
27842	17.55	21.20	21.20	-11.40	1.0200	100.00	1	34.20	5.00	0.00	0.00	0.00	0.00	0.00	0.00	0	0	0	0	34.2000	0	0	0	0
27842	17.55	21.20	21.20	-11.40	1.0200	100.00	1	34.20	5.00	0.00	0.00	0.00	0.00	0.00	0.00	0	0	0	0	34.2000	0	0	0	0
27842	17.55	21.20	21.20	-11.40	1.0200	100.00	1	34.20	5.00	0.00	0.00	0.00	0.00	0.00	0.00	0	0	0	0	34.2000	0	0	0	0
27842	17.55	21.20	21.20	-11.40	1.0200	100.00	1	34.20	5.00	0.00	0.00	0.00	0.00	0.00	0.00	0	0	0	0	34.2000	0	0	0	0
27842	17.55	21.20	21.20	-11.40	1.0200	100.00	1	34.20	5.00	0.00	0.00	0.00	0.00	0.00	0.00	0	0	0	0	34.2000	0	0	0	0
27842	17.55	21.20	21.20	-11.40	1.0200	100.00	1	34.20	5.00	0.00	0.00	0.00	0.00	0.00	0.00	0	0	0	0	34.2000	0	0	0	0
27842	17.55	21.20	21.20	-11.40	1.0200	100.00	1	34.20	5.00	0.00	0.00	0.00	0.00	0.00	0.00	0	0	0	0	34.2000	0	0	0	0
27842	17.55	21.20	21.20	-11.40	1.0200	100.00	1	34.20	5.00	0.00	0.00	0.00	0.00	0.00	0.00	0	0	0	0	34.2000	0	0	0	0
27842	17.55	21.20	21.20	-11.40	1.0200	100.00	1	34.20	5.00	0.00	0.00	0.00	0.00	0.00	0.00	0	0	0	0	34.2000	0	0	0	0
27842	17.55	21.20	21.20	-11.40	1.0200	100.00	1	34.20	5.00	0.00	0.00	0.00	0.00	0.00	0.00	0	0	0	0	34.2000	0	0	0	0
27842	17.55	21.20	21.20	-11.40	1.0200	100.00	1	34.20	5.00	0.00	0.00	0.00	0.00	0.00	0.00	0	0	0	0	34.2000	0	0	0	0
27842	17.55	21.20	21.20	-11.40	1.0200	100.00	1	34.20	5.00	0.00	0.00	0.00	0.00	0.00	0.00	0	0	0	0	34.2000	0	0	0	0
27842	17.55	21.20	21.20	-11.40	1.0200	100.00	1	34.20	5.00	0.00	0.00	0.00	0.00	0.00	0.00	0	0	0	0	34.2000	0	0	0	0
27842	17.55	21.20	21.20	-11.40	1.0200	100.00	1	34.20	5.00	0.00	0.00	0.00	0.00	0.00	0.00	0	0	0	0	34.2000	0	0	0	0
27842	17.55	25.70	25.70	-11.40	1.0200	100.00	1	34.20	5.00	0.00	0.00	0.00	0.00	0.00	0.00	0	0	0	0	34.2000	0	0	0	0
27842	77.61	93.70	93.70	-50.40	1.0200	100.00	1	151.20	48.32	0.00	0.00	0.00	0.00	0.00	0.00	0	0	0	0	151.2000	0	0	0	0
27842	77.61	93.70	93.70	-50.40	1.0200	100.00	1	151.20	48.32	0.00	0.00	0.00	0.00	0.00	0.00	0	0	0	0	151.2000	0	0	0	0
27842	167.36	110.51	138.80	-61.70	1.0200	100.00	1	185.00	155.00	0.00	0.00	0.00	0.00	0.00	0.00	0	0	0	0	185.0000	0	0	0	0
27842	167.36	110.51	138.80	-61.70	1.0200	100.00	1	185.00	155.00	0.00	0.00	0.00	0.00	0.00	0.00	0	0	0	0	185.0000	0	0	0	0
27842	167.36	110.51	138.80	-61.70	1.0200	100.00	1	185.00	155.00	0.00	0.00	0.00	0.00	0.00	0.00	0	0	0	0	185.0000	0	0	0	0
27842	17.55	21.20	21.20	-11.40	1.0200	100.00	1	34.20	5.00	0.00	0.00	0.00	0.00	0.00	0.00	0	0	0	0	34.2000	0	0	0	0
27842	167.36	110.51	138.80	-61.70	1.0200	100.00	1	185.00	155.00	0.00	0.00	0.00	0.00	0.00	0.00	0	0	0	0	185.0000	0	0	0	0
27842	17.55	21.20	21.20	-11.40	1.0200	100.00	1	34.20	5.00	0.00	0.00	0.00	0.00	0.00	0.00	0	0	0	0	34.2000	0	0	0	0
27842	17.55	21.20	21.20	-11.40	1.0200	100.00	1	34.20	5.00	0.00	0.00	0.00	0.00	0.00	0.00	0	0	0	0	34.2000	0	0	0	0
27842	17.55	21.20	21.20	-11.40	1.0200	100.00	1	34.20	5.00	0.00	0.00	0.00	0.00	0.00	0.00	0	0	0	0	34.2000	0	0	0	0
27842	17.55	21.20	21.20	-11.40	1.0200	100.00	1	34.20	5.00	0.00	0.00	0.00	0.00	0.00	0.00	0	0	0	0	34.2000	0	0	0	0
27842	17.55	21.20	21.20	-11.40	1.0200	100.00	1	34.20	5.00	0.00	0.00	0.00	0.00	0.00	0.00	0	0	0	0	34.2000	0	0	0	0
...
];

%% generator cost data
mpc.gencost = [
2	0	0	4	0.0000	0.000	0.000	0.00
2	0	0	4	0.0000	0.000	0.000	0.00
2	0	0	4	0.0000	0.002	12.792	1184.30
2	0	0	4	0.0000	0.002	12.792	1184.30
2	0	0	4	0.0000	0.002	13.031	1060.47
2	0	0	4	0.0000	0.002	13.031	1060.47
2	0	0	4	0.0000	0.003	21.137	1355.72
2	0	0	4	0.0000	0.003	21.137	1355.72
2	0	0	4	0.0000	0.009	18.772	588.04
2	0	0	4	0.0000	0.003	13.203	714.75
2	0	0	4	0.0000	0.003	13.203	714.75
2	0	0	4	0.0000	0.009	18.772	588.04
2	0	0	4	0.0000	0.026	13.537	318.86
2	0	0	4	0.0000	0.003	13.173	668.77
2	0	0	4	0.0000	0.003	13.173	668.77
2	0	0	4	0.0000	0.003	13.173	668.77
2	0	0	4	0.0000	0.003	13.215	724.12
2	0	0	4	0.0000	0.002	12.726	1193.15
2	0	0	4	0.0000	0.002	12.726	1193.15
2	0	0	4	0.0000	0.000	0.000	0.00
2	0	0	4	0.0000	0.003	13.165	660.71
2	0	0	4	0.0000	0.002	13.262	784.35
2	0	0	4	0.0000	0.019	71.187	3251.30
2	0	0	4	0.0000	0.019	71.187	3251.30
2	0	0	4	0.0000	0.018	23.332	372.47
2	0	0	4	0.0000	0.026	13.537	318.86
2	0	0	4	0.0000	0.022	23.727	313.88
2	0	0	4	0.0000	0.026	11.398	993.75
2	0	0	4	0.0000	0.004	13.252	559.29
2	0	0	4	0.0000	0.009	18.772	588.04
2	0	0	4	0.0000	0.024	72.799	2716.10
2	0	0	4	0.0000	0.024	72.799	2716.10
2	0	0	4	0.0000	0.009	13.659	2130.63
2	0	0	4	0.0000	0.009	13.659	2130.63
2	0	0	4	0.0000	0.026	11.398	993.75
2	0	0	4	0.0000	0.026	11.398	993.75
2	0	0	4	0.0000	0.026	11.398	993.75
2	0	0	4	0.0000	0.026	11.398	993.75
2	0	0	4	0.0000	0.026	11.398	993.75
2	0	0	4	0.0000	0.026	11.398	993.75
2	0	0	4	0.0000	0.008	50.578	1755.23
2	0	0	4	0.0000	0.008	50.578	1755.23
2	0	0	4	0.0000	0.008	50.578	1755.23
2	0	0	4	0.0000	0.008	50.578	1755.23
2	0	0	4	0.0000	0.003	21.151	1357.40
2	0	0	4	0.0000	0.005	13.478	481.81
2	0	0	4	0.0000	0.005	13.478	481.81
2	0	0	4	0.0000	0.005	13.507	472.62
2	0	0	4	0.0000	0.026	13.537	318.86
2	0	0	4	0.0000	0.026	13.537	318.86
2	0	0	4	0.0000	0.032	24.638	240.73
2	0	0	4	0.0000	0.007	16.922	371.49
2	0	0	4	0.0000	0.006	13.676	416.45
2	0	0	4	0.0000	0.009	18.772	588.04
2	0	0	4	0.0000	0.009	18.772	588.04
2	0	0	4	0.0000	0.026	13.537	318.86
2	0	0	4	0.0000	0.026	13.537	318.86
2	0	0	4	0.0000	0.026	13.537	318.86
2	0	0	4	0.0000	0.026	13.537	318.86
2	0	0	4	0.0000	0.009	13.659	2130.63
2	0	0	4	0.0000	0.009	18.772	588.04
2	0	0	4	0.0000	0.009	18.772	588.04
2	0	0	4	0.0000	0.009	18.772	588.04
2	0	0	4	0.0000	0.009	18.772	588.04
2	0	0	4	0.0000	0.005	60.757	2894.55
2	0	0	4	0.0000	0.005	60.757	2894.55
2	0	0	4	0.0000	0.005	60.757	2894.55
2	0	0	4	0.0000	0.009	18.772	588.04
2	0	0	4	0.0000	0.009	18.772	588.04
2	0	0	4	0.0000	0.005	60.757	2894.55
2	0	0	4	0.0000	0.005	60.757	2894.55
2	0	0	4	0.0000	0.009	18.772	588.04
2	0	0	4	0.0000	0.009	18.772	588.04
2	0	0	4	0.0000	0.009	18.772	588.04
2	0	0	4	0.0000	0.026	13.537	318.86
2	0	0	4	0.0000	0.026	13.537	318.86
2	0	0	4	0.0000	0.026	13.537	318.86
2	0	0	4	0.0000	0.032	24.637	240.75
2	0	0	4	0.0000	0.026	11.398	993.75
2	0	0	4	0.0000	0.009	18.772	588.04
2	0	0	4	0.0000	0.005	60.757	2894.55
2	0	0	4	0.0000	0.005	60.757	2894.55
2	0	0	4	0.0000	0.005	60.757	2894.55
2	0	0	4	0.0000	0.005	60.757	2894.55
2	0	0	4	0.0000	0.005	60.757	2894.55
2	0	0	4	0.0000	0.009	18.772	588.04
2	0	0	4	0.0000	0.009	18.772	588.04
2	0	0	4	0.0000	0.032	9.547	2249.86
2	0	0	4	0.0000	0.032	9.547	2249.86
2	0	0	4	0.0000	0.032	9.547	2249.86
2	0	0	4	0.0000	0.032	9.547	2249.86
2	0	0	4	0.0000	0.032	9.547	2249.86
2	0	0	4	0.0000	0.032	9.547	2249.86
2	0	0	4	0.0000	0.026	11.398	993.75
2	0	0	4	0.0000	0.009	18.772	588.04
2	0	0	4	0.0000	0.009	18.772	588.04
2	0	0	4	0.0000	0.007	16.922	371.49
2	0	0	4	0.0000	0.009	18.772	588.04
2	0	0	4	0.0000	0.009	18.772	588.04
2	0	0	4	0.0000	0.009	18.772	588.04
2	0	0	4	0.0000	0.009	18.772	588.04
2	0	0	4	0.0000	0.007	16.922	371.49
2	0	0	4	0.0000	0.007	16.922	371.49
2	0	0	4	0.0000	0.007	16.922	371.49
2	0	0	4	0.0000	0.009	13.659	2130.63
2	0	0	4	0.0000	0.009	18.772	588.04
2	0	0	4	0.0000	0.009	18.772	588.04
2	0	0	4	0.0000	0.009	18.772	588.04
2	0	0	4	0.0000	0.009	18.772	588.04
2	0	0	4	0.0000	0.032	9.547	2249.86
2	0	0	4	0.0000	0.008	50.578	1755.23
2	0	0	4	0.0000	0.008	50.578	1755.23
2	0	0	4	0.0000	0.008	50.578	1755.23
2	0	0	4	0.0000	0.008	50.578	1755.23
2	0	0	4	0.0000	0.005	60.757	2894.55
2	0	0	4	0.0000	0.005	60.757	2894.55
2	0	0	4	0.0000	0.009	13.659	2130.63
2	0	0	4	0.0000	0.009	18.772	588.04
2	0	0	4	0.0000	0.009	18.772	588.04
2	0	0	4	0.0000	0.009	18.772	588.04
2	0	0	4	0.0000	0.008	50.578	1755.23
2	0	0	4	0.0000	0.009	18.772	588.04
2	0	0	4	0.0000	0.009	18.772	588.04
2	0	0	4	0.0000	0.009	18.772	588.04
2	0	0	4	0.0000	0.008	50.578	1755.23
2	0	0	4	0.0000	0.008	50.578	1755.23
2	0	0	4	0.0000	0.008	50.578	1755.23
2	0	0	4	0.0000	0.008	50.578	1755.23
2	0	0	4	0.0000	0.008	50.578	1755.23
2	0	0	4	0.0000	0.008	50.578	1755.23
2	0	0	4	0.0000	0.008	50.578	1755.23
2	0	0	4	0.0000	0.009	13.659	2130.63
2	0	0	4	0.0000	0.009	18.772	588.04
2	0	0	4	0.0000	0.048	77.526	1535.50
2	0	0	4	0.0000	0.009	13.659	2130.63
2	0	0	4	0.0000	0.009	18.772	588.04
2	0	0	4	0.0000	0.009	18.772	588.04
2	0	0	4	0.0000	0.009	18.772	588.04
2	0	0	4	0.0000	0.009	18.772	588.04
2	0	0	4	0.0000	0.009	18.772	588.04
2	0	0	4	0.0000	0.009	18.772	588.04
2	0	0	4	0.0000	0.009	18.772	588.04
2	0	0	4	0.0000	0.009	67.576	7585.10
2	0	0	4	0.0000	0.009	67.576	7585.10
2	0	0	4	0.0000	0.009	13.659	2130.63
2	0	0	4	0.0000	0.009	18.772	588.04
2	0	0	4	0.0000	0.009	18.772	588.04
2	0	0	4	0.0000	0.009	18.772	588.04
2	0	0	4	0.0000	0.009	18.772	588.04
2	0	0	4	0.0000	0.008	67.580	8226.70
2	0	0	4	0.0000	0.009	18.772	588.04
2	0	0	4	0.0000	0.009	18.772	588.04
2	0	0	4	0.0000	0.009	18.772	588.04
2	0	0	4	0.0000	0.009	18.772	588.04
2	0	0	4	0.0000	0.008	67.576	8226.70
2	0	0	4	0.0000	0.009	13.659	2130.63
2	0	0	4	0.0000	0.009	18.772	588.04
2	0	0	4	0.0000	0.009	18.772	588.04
2	0	0	4	0.0000	0.009	18.772	588.04
2	0	0	4	0.0000	0.009	18.772	588.04
2	0	0	4	0.0000	0.009	18.772	588.04
2	0	0	4	0.0000	0.009	18.772	588.04
2	0	0	4	0.0000	0.000	0.000	0.00
2	0	0	4	0.0000	0.000	0.000	0.00
2	0	0	4	0.0000	0.009	13.659	2130.63
2	0	0	4	0.0000	0.018	71.221	3361.43
2	0	0	4	0.0000	0.018	71.221	3361.43
2	0	0	4	0.0000	0.009	18.772	588.04
2	0	0	4	0.0000	0.009	18.772	588.04
2	0	0	4	0.0000	0.009	18.772	588.04
2	0	0	4	0.0000	0.009	18.772	588.04
2	0	0	4	0.0000	0.026	13.537	318.86
2	0	0	4	0.0000	0.026	13.537	318.86
2	0	0	4	0.0000	0.026	13.537	318.86
2	0	0	4	0.0000	0.026	13.537	318.86
2	0	0	4	0.0000	0.026	13.537	318.86
2	0	0	4	0.0000	0.026	13.537	318.86
2	0	0	4	0.0000	0.026	13.537	318.86
2	0	0	4	0.0000	0.026	13.537	318.86
2	0	0	4	0.0000	0.026	13.537	318.86
2	0	0	4	0.0000	0.026	13.537	318.86
2	0	0	4	0.0000	0.026	13.537	318.86
2	0	0	4	0.0000	0.026	13.537	318.86
2	0	0	4	0.0000	0.026	13.537	318.86
2	0	0	4	0.0000	0.026	13.537	318.86
2	0	0	4	0.0000	0.026	13.537	318.86
2	0	0	4	0.0000	0.026	13.537	318.86
2	0	0	4	0.0000	0.026	13.537	318.86
2	0	0	4	0.0000	0.032	9.547	2249.86
2	0	0	4	0.0000	0.032	9.547	2249.86
2	0	0	4	0.0000	0.032	9.547	2249.86
2	0	0	4	0.0000	0.032	9.547	2249.86
2	0	0	4	0.0000	0.032	9.547	2249.86
2	0	0	4	0.0000	0.026	13.537	318.86
2	0	0	4	0.0000	0.032	9.547	2249.86
2	0	0	4	0.0000	0.026	13.537	318.86
2	0	0	4	0.0000	0.026	13.537	318.86
2	0	0	4	0.0000	0.026	13.537	318.86
2	0	0	4	0.0000	0.026	13.537	318.86
2	0	0	4	0.0000	0.026	13.537	318.86
...
];

%% branch data
mpc.branch = [
27810	29514	0.000469	0.005848	0.40091	1725.00	1811.20	1897.50	0.00000	0.000	1	0.00	0.00	767.13	140.26	-764.37	-146.95	0	0	0	0
27810	30911	0.000700	0.010046	0.69505	1893.00	1987.60	2082.30	0.00000	0.000	1	0.00	0.00	776.90	56.49	-772.78	-68.88	0	0	0	0
27810	84641	0.000130	0.010428	0.00000	1400.00	1400.00	1400.00	1.00000	0.000	1	0.00	0.00	307.98	100.34	-307.85	-89.83	0	0	0	0
27810	84641	0.000130	0.010428	0.00000	1400.00	1400.00	1400.00	1.00000	0.000	1	0.00	0.00	307.98	100.34	-307.85	-89.83	0	0	0	0
27811	27855	0.000454	0.011852	1.26440	4112.00	4317.60	4523.20	0.00000	0.000	0	0.00	0.00	0.00	0.00	0.00	0.00	0	0	0	0
27811	28131	0.000347	0.008567	0.63202	2783.00	2922.20	3061.30	0.00000	0.000	1	0.00	0.00	556.33	53.18	-555.27	-92.32	0	0	0	0
27811	28681	0.000238	0.005865	0.69888	4112.00	4317.60	4523.20	0.00000	0.000	1	0.00	0.00	260.29	142.88	-260.06	-209.19	0	0	0	0
27811	30803	0.000620	0.016114	1.47600	3531.00	3707.60	3884.10	0.00000	0.000	1	0.00	0.00	-491.25	15.79	492.74	-129.36	0	0	0	0
27811	84644	0.000114	0.009124	0.00000	1600.00	1600.00	1600.00	1.00000	0.000	1	0.00	0.00	157.67	91.94	-157.63	-89.02	0	0	0	0
27811	84644	0.000114	0.009124	0.00000	1600.00	1600.00	1600.00	1.00000	0.000	1	0.00	0.00	157.67	91.94	-157.63	-89.02	0	0	0	0
27811	84644	0.000114	0.009124	0.00000	1600.00	1600.00	1600.00	1.00000	0.000	1	0.00	0.00	157.67	91.94	-157.63	-89.02	0	0	0	0
84645	27811	0.000149	0.011930	0.00000	1450.00	1450.00	1450.00	1.00000	0.000	0	0.00	0.00	0.00	0.00	0.00	0.00	0	0	0	0
84645	27811	0.000149	0.011930	0.00000	1450.00	1450.00	1450.00	1.00000	0.000	0	0.00	0.00	0.00	0.00	0.00	0.00	0	0	0	0
27812	28820	0.000010	0.000115	0.00860	1725.00	1811.20	1897.50	0.00000	0.000	1	0.00	0.00	519.89	53.75	-519.87	-54.35	0	0	0	0
27812	84646	0.000159	0.012695	0.00000	1150.00	1150.00	1150.00	1.00000	0.000	1	0.00	0.00	302.14	138.28	-301.97	-124.81	0	0	0	0
27812	84646	0.000159	0.012695	0.00000	1150.00	1150.00	1150.00	1.00000	0.000	1	0.00	0.00	302.14	138.28	-301.97	-124.81	0	0	0	0
27813	31215	0.000568	0.005738	0.01302	491.00	515.50	540.10	0.00000	0.000	1	0.00	0.00	121.65	79.04	-121.54	-79.22	0	0	0	0
27813	31215	0.000568	0.005738	0.01302	491.00	515.50	540.10	0.00000	0.000	1	0.00	0.00	121.65	79.04	-121.54	-79.22	0	0	0	0
27813	31522	0.000245	0.002840	0.01009	794.00	833.70	873.40	0.00000	0.000	1	0.00	0.00	73.38	102.05	-73.34	-102.66	0	0	0	0
27813	84647	0.000208	0.015570	0.00000	700.00	700.00	700.00	1.00000	0.000	1	0.00	0.00	103.67	78.75	-103.64	-76.22	0	0	0	0
27813	84647	0.000208	0.015570	0.00000	700.00	700.00	700.00	1.00000	0.000	1	0.00	0.00	103.67	78.75	-103.64	-76.22	0	0	0	0
84648	27813	0.000596	0.041746	0.00000	400.00	400.00	400.00	1.00000	0.000	1	0.00	0.00	-23.49	-18.42	23.49	18.78	0	0	0	0
84648	27813	0.000596	0.041746	0.00000	400.00	400.00	400.00	1.00000	0.000	1	0.00	0.00	-23.49	-18.42	23.49	18.78	0	0	0	0
27814	28178	0.000794	0.010276	0.65690	1725.00	1811.20	1897.50	0.00000	0.000	1	0.00	0.00	-694.54	168.30	698.56	-183.54	0	0	0	0
27814	30713	0.000413	0.005155	0.35337	1725.00	1811.20	1897.50	0.00000	0.000	1	0.00	0.00	610.83	68.51	-609.31	-85.91	0	0	0	0
27814	84649	0.000174	0.013904	0.00000	1050.00	1050.00	1050.00	1.00000	0.000	1	0.00	0.00	259.00	133.29	-258.86	-121.90	0	0	0	0
27814	84649	0.000174	0.013904	0.00000	1050.00	1050.00	1050.00	1.00000	0.000	1	0.00	0.00	259.00	133.29	-258.86	-121.90	0	0	0	0
84650	27814	0.000333	0.026613	0.00000	650.00	650.00	650.00	1.00000	0.000	1	0.00	0.00	-144.22	-69.60	144.30	76.45	0	0	0	0
84650	27814	0.000333	0.026613	0.00000	650.00	650.00	650.00	1.00000	0.000	1	0.00	0.00	-144.22	-69.60	144.30	76.45	0	0	0	0
27815	29434	0.000039	0.000503	0.03289	1725.00	1811.20	1897.50	0.00000	0.000	1	0.00	0.00	257.54	67.51	-257.52	-70.59	0	0	0	0
27815	29867	0.000536	0.006925	0.44228	1725.00	1811.20	1897.50	0.00000	0.000	1	0.00	0.00	177.86	121.51	-177.59	-163.55	0	0	0	0
27815	84651	0.000216	0.016221	0.00000	900.00	900.00	900.00	1.00000	0.000	1	0.00	0.00	165.34	64.16	-165.28	-59.26	0	0	0	0
27815	84651	0.000216	0.016221	0.00000	900.00	900.00	900.00	1.00000	0.000	1	0.00	0.00	165.34	64.16	-165.28	-59.26	0	0	0	0
84652	27815	0.000419	0.031452	0.00000	550.00	550.00	550.00	1.00000	0.000	1	0.00	0.00	-100.57	-36.94	100.61	40.49	0	0	0	0
84652	27815	0.000419	0.031452	0.00000	550.00	550.00	550.00	1.00000	0.000	1	0.00	0.00	-100.57	-36.94	100.61	40.49	0	0	0	0
27816	28788	0.000452	0.010934	1.05700	3786.00	3975.30	4164.60	0.00000	0.000	1	0.00	0.00	1214.21	47.30	-1207.76	-0.42	0	0	0	0
27816	29338	0.000568	0.015765	1.18680	3031.00	3182.60	3334.10	0.00000	0.000	1	0.00	0.00	113.52	-4.31	-113.43	-115.61	0	0	0	0
27816	84653	0.000135	0.010814	0.00000	1350.00	1350.00	1350.00	1.00000	0.000	1	0.00	0.00	471.31	134.30	-471.00	-109.34	0	0	0	0
27816	84653	0.000135	0.010814	0.00000	1350.00	1350.00	1350.00	1.00000	0.000	1	0.00	0.00	471.31	134.30	-471.00	-109.34	0	0	0	0
27817	28145	0.000291	0.004934	0.01743	1023.00	1074.10	1125.30	0.00000	0.000	1	0.00	0.00	212.62	59.66	-212.49	-59.15	0	0	0	0
27817	28148	0.000080	0.000854	0.00174	491.00	515.50	540.10	0.00000	0.000	1	0.00	0.00	107.02	21.54	-107.02	-21.62	0	0	0	0
27817	28148	0.000080	0.000854	0.00174	491.00	515.50	540.10	0.00000	0.000	1	0.00	0.00	107.02	21.54	-107.02	-21.62	0	0	0	0
27817	28151	0.000151	0.002265	0.00530	647.00	679.30	711.70	0.00000	0.000	1	0.00	0.00	-46.59	29.69	46.59	-30.17	0	0	0	0
27817	84655	0.001070	0.055656	0.00000	300.00	300.00	300.00	1.00000	0.000	1	0.00	0.00	16.30	6.90	-16.30	-6.73	0	0	0	0
27817	84655	0.001070	0.055656	0.00000	300.00	300.00	300.00	1.00000	0.000	1	0.00	0.00	16.30	6.90	-16.30	-6.73	0	0	0	0
27818	27840	0.000064	0.000833	0.05317	1725.00	1811.20	1897.50	0.00000	0.000	1	0.00	0.00	-627.41	175.06	627.68	-177.02	0	0	0	0
27818	31179	0.000273	0.003534	0.22554	1725.00	1811.20	1897.50	0.00000	0.000	1	0.00	0.00	399.90	-100.73	-399.45	83.43	0	0	0	0
27818	84656	0.000324	0.024331	0.00000	600.00	600.00	600.00	1.00000	0.000	1	0.00	0.00	113.76	-37.16	-113.71	40.57	0	0	0	0
27818	84656	0.000324	0.024331	0.00000	600.00	600.00	600.00	1.00000	0.000	1	0.00	0.00	113.76	-37.16	-113.71	40.57	0	0	0	0
27819	29401	0.005342	0.035642	0.06721	366.00	384.30	402.60	0.00000	0.000	1	0.00	0.00	65.86	52.21	-65.47	-56.50	0	0	0	0
27819	31589	0.000161	0.001962	0.00403	541.00	568.10	595.10	0.00000	0.000	1	0.00	0.00	187.23	124.93	-187.15	-124.39	0	0	0	0
27819	84658	0.000171	0.012822	0.00000	850.00	850.00	850.00	1.00000	0.000	1	0.00	0.00	179.67	139.17	-179.58	-132.81	0	0	0	0
27819	84658	0.000171	0.012822	0.00000	850.00	850.00	850.00	1.00000	0.000	1	0.00	0.00	179.67	139.17	-179.58	-132.81	0	0	0	0
27820	30914	0.000199	0.001550	0.00555	635.00	666.80	698.50	0.00000	0.000	1	0.00	0.00	153.30	191.93	-153.18	-191.57	0	0	0	0
27820	84659	0.000323	0.024220	0.00000	450.00	450.00	450.00	1.00000	0.000	1	0.00	0.00	57.23	36.07	-57.22	-34.98	0	0	0	0
27820	84659	0.000323	0.024220	0.00000	450.00	450.00	450.00	1.00000	0.000	1	0.00	0.00	57.23	36.07	-57.22	-34.98	0	0	0	0
84660	27820	0.001336	0.066787	0.00000	250.00	250.00	250.00	1.00000	0.000	1	0.00	0.00	-13.66	-8.30	13.66	8.47	0	0	0	0
84660	27820	0.001336	0.066787	0.00000	250.00	250.00	250.00	1.00000	0.000	1	0.00	0.00	-13.66	-8.30	13.66	8.47	0	0	0	0
27821	28329	0.000322	0.007659	0.62372	2811.00	2951.50	3092.10	0.00000	0.000	1	0.00	0.00	1480.05	85.35	-1473.23	12.52	0	0	0	0
27821	31178	0.000303	0.003785	0.25938	1725.00	1811.20	1897.50	0.00000	0.000	1	0.00	0.00	431.30	133.65	-430.70	-152.90	0	0	0	0
27821	31179	0.000361	0.004507	0.30894	1725.00	1811.20	1897.50	0.00000	0.000	1	0.00	0.00	-876.59	225.85	879.47	-221.96	0	0	0	0
27821	84661	0.000091	0.007299	0.00000	2000.00	2000.00	2000.00	1.00000	0.000	1	0.00	0.00	409.86	118.87	-409.70	-106.10	0	0	0	0
27821	84661	0.000091	0.007299	0.00000	2000.00	2000.00	2000.00	1.00000	0.000	1	0.00	0.00	409.86	118.87	-409.70	-106.10	0	0	0	0
84662	27821	0.000180	0.014416	0.00000	1200.00	1200.00	1200.00	1.00000	0.000	1	0.00	0.00	-218.45	-55.36	218.54	62.52	0	0	0	0
84662	27821	0.000180	0.014416	0.00000	1200.00	1200.00	1200.00	1.00000	0.000	1	0.00	0.00	-218.45	-55.36	218.54	62.52	0	0	0	0
27822	28820	0.000014	0.000257	0.02251	2720.00	2856.00	2992.00	0.00000	0.000	1	0.00	0.00	-266.31	57.60	266.32	-59.75	0	0	0	0
27822	28963	0.000115	0.001912	0.12492	2056.00	2158.80	2261.60	0.00000	0.000	1	0.00	0.00	836.52	368.68	-835.59	-366.13	0	0	0	0
27822	84663	0.000384	0.028831	0.00000	600.00	600.00	600.00	1.00000	0.000	1	0.00	0.00	123.20	59.16	-123.13	-53.99	0	0	0	0
27822	84663	0.000384	0.028831	0.00000	600.00	600.00	600.00	1.00000	0.000	1	0.00	0.00	123.20	59.16	-123.13	-53.99	0	0	0	0
27823	27903	0.000535	0.002409	0.00064	175.00	183.70	192.50	0.00000	0.000	1	0.00	0.00	29.68	42.86	-29.67	-42.86	0	0	0	0
27823	28822	0.000856	0.005515	0.00145	219.00	229.90	240.90	0.00000	0.000	1	0.00	0.00	82.43	44.50	-82.35	-44.16	0	0	0	0
27823	85084	0.001529	0.014940	0.00419	284.00	298.20	312.40	0.00000	0.000	1	0.00	0.00	86.21	48.28	-86.06	-47.23	0	0	0	0
27823	85095	0.002348	0.009401	0.00237	159.00	166.90	174.90	0.00000	0.000	1	0.00	0.00	92.52	45.06	-92.27	-44.29	0	0	0	0
27824	28042	0.003736	0.020729	0.00630	205.00	215.20	225.50	0.00000	0.000	1	0.00	0.00	5.26	62.90	-5.11	-62.74	0	0	0	0
27824	28057	0.000885	0.010785	0.00356	347.00	364.40	381.70	0.00000	0.000	1	0.00	0.00	26.83	79.15	-26.77	-78.79	0	0	0	0
27824	28058	0.004101	0.020605	0.00536	185.00	194.20	203.50	0.00000	0.000	1	0.00	0.00	61.75	27.75	-61.57	-27.39	0	0	0	0
27824	28059	0.009410	0.041232	0.01419	185.00	194.20	203.50	0.00000	0.000	1	0.00	0.00	58.28	28.33	-57.90	-28.09	0	0	0	0
27824	28062	0.002334	0.009877	0.00222	159.00	166.90	174.90	0.00000	0.000	1	0.00	0.00	46.49	44.53	-46.39	-44.37	0	0	0	0
27824	28071	0.004475	0.028827	0.00756	219.00	229.90	240.90	0.00000	0.000	1	0.00	0.00	33.96	40.31	-33.84	-40.31	0	0	0	0
27824	84664	0.003471	0.124950	0.00000	100.00	100.00	100.00	1.00000	0.000	1	0.00	0.00	8.19	4.46	-8.19	-4.36	0	0	0	0
27824	84664	0.003471	0.124950	0.00000	100.00	100.00	100.00	1.00000	0.000	1	0.00	0.00	8.19	4.46	-8.19	-4.36	0	0	0	0
27825	29511	0.003623	0.023521	0.04686	366.00	384.30	402.60	0.00000	0.000	1	0.00	0.00	128.10	42.43	-127.46	-43.08	0	0	0	0
27825	31814	0.000867	0.005780	0.01089	366.00	384.30	402.60	0.00000	0.000	1	0.00	0.00	-21.92	96.03	22.00	-96.61	0	0	0	0
27825	84665	0.000872	0.043591	0.00000	250.00	250.00	250.00	1.00000	0.000	1	0.00	0.00	41.45	32.85	-41.43	-31.67	0	0	0	0
27825	84665	0.000872	0.043591	0.00000	250.00	250.00	250.00	1.00000	0.000	1	0.00	0.00	41.45	32.85	-41.43	-31.67	0	0	0	0
84666	27825	0.002854	0.111300	0.00000	150.00	150.00	150.00	1.00000	0.000	1	0.00	0.00	-11.03	-8.35	11.04	8.55	0	0	0	0
84666	27825	0.002854	0.111300	0.00000	150.00	150.00	150.00	1.00000	0.000	1	0.00	0.00	-11.03	-8.35	11.04	8.55	0	0	0	0
27826	29246	0.000956	0.006378	0.01202	366.00	384.30	402.60	0.00000	0.000	1	0.00	0.00	1.65	42.75	-1.63	-43.89	0	0	0	0
27826	29479	0.001316	0.012956	0.02761	473.00	496.60	520.30	0.00000	0.000	1	0.00	0.00	-53.59	166.87	53.99	-165.80	0	0	0	0
27826	31397	0.000778	0.008301	0.01688	491.00	515.50	540.10	0.00000	0.000	1	0.00	0.00	164.31	89.53	-164.05	-88.47	0	0	0	0
27826	31397	0.000778	0.008301	0.01688	491.00	515.50	540.10	0.00000	0.000	1	0.00	0.00	164.31	89.53	-164.05	-88.47	0	0	0	0
27826	31401	0.000490	0.005687	0.02021	794.00	833.70	873.40	0.00000	0.000	1	0.00	0.00	225.63	138.07	-225.30	-136.32	0	0	0	0
27826	84667	0.000208	0.014532	0.00000	750.00	750.00	750.00	1.00000	0.000	1	0.00	0.00	103.89	87.45	-103.86	-84.88	0	0	0	0
27826	84667	0.000208	0.014532	0.00000	750.00	750.00	750.00	1.00000	0.000	1	0.00	0.00	103.89	87.45	-103.86	-84.88	0	0	0	0
84668	27826	0.000596	0.041746	0.00000	400.00	400.00	400.00	1.00000	0.000	1	0.00	0.00	-25.14	-20.39	25.14	20.82	0	0	0	0
84668	27826	0.000596	0.041746	0.00000	400.00	400.00	400.00	1.00000	0.000	1	0.00	0.00	-25.14	-20.39	25.14	20.82	0	0	0	0
27827	30856	0.001577	0.014456	0.05707	731.00	767.50	804.10	0.00000	0.000	1	0.00	0.00	316.26	121.28	-314.51	-111.05	0	0	0	0
27827	84669	0.000872	0.043591	0.00000	250.00	250.00	250.00	1.00000	0.000	1	0.00	0.00	11.92	23.02	-11.91	-22.74	0	0	0	0
27827	84669	0.000872	0.043591	0.00000	250.00	250.00	250.00	1.00000	0.000	1	0.00	0.00	11.92	23.02	-11.91	-22.74	0	0	0	0
...